@<TRIPOS>MOLECULE
leadst.pdb
 17 19 0 0 0
SMALL
GASTEIGER

@<TRIPOS>ATOM
      1  C12      -32.4450   -0.1290  -37.9400 C.3   1404  69E1404     0.0310
      2  C15      -31.2500   -0.4700  -37.1230 C.ar  1404  69E1404    -0.0217
      3  C16      -29.9540   -0.2740  -37.6220 C.ar  1404  69E1404    -0.0027
      4  C17      -28.8740   -0.6440  -36.8730 C.ar  1404  69E1404     0.0185
      5  C18      -29.0550   -1.1990  -35.6050 C.ar  1404  69E1404     0.0794
      6  C19      -30.3410   -1.3980  -35.0830 C.ar  1404  69E1404     0.0364
      7  C20      -31.4450   -1.0330  -35.8600 C.ar  1404  69E1404    -0.0012
      8  C21      -30.1450   -1.9970  -33.7440 C.ar  1404  69E1404     0.1053
      9  N22      -28.8640   -2.1070  -33.5370 N.ar  1404  69E1404    -0.1691
     10  N23      -28.1760   -1.6400  -34.6480 N.ar  1404  69E1404    -0.2488
     11  C24      -26.7260   -1.6300  -34.7790 C.3   1404  69E1404     0.1537
     12  C25      -31.1670   -2.3800  -32.7460 C.ar  1404  69E1404     0.0590
     13  C26      -30.8870   -2.7470  -31.4140 C.ar  1404  69E1404     0.1232
     14  N27      -32.0250   -2.9860  -30.8280 N.ar  1404  69E1404    -0.1675
     15  N28      -33.0470   -2.7580  -31.7540 N.ar  1404  69E1404    -0.2473
     16  C29      -32.5100   -2.3780  -32.9250 C.ar  1404  69E1404     0.0982
     17  C30      -34.4730   -2.9010  -31.5120 C.3   1404  69E1404     0.1538
@<TRIPOS>BOND
     1     1     2    1
     2     2     3   ar
     3     2     7   ar
     4     3     4   ar
     5     4     5   ar
     6     5     6   ar
     7     5    10   ar
     8     6     7   ar
     9     6     8   ar
    10     8     9   ar
    11     8    12    1
    12     9    10   ar
    13    10    11    1
    14    12    13   ar
    15    12    16   ar
    16    13    14   ar
    17    14    15   ar
    18    15    16   ar
    19    15    17    1
